/*--------------------------------*- C++ -*----------------------------------*\
| =========                 |                                                 |
| \\      /  F ield         | OpenFOAM: The Open Source CFD Toolbox           |
|  \\    /   O peration     | Version:  2206                                  |
|   \\  /    A nd           | Website:  www.openfoam.com                      |
|    \\/     M anipulation  |                                                 |
\*---------------------------------------------------------------------------*/
FoamFile
{
    version     2.0;
    format      ascii;
    arch        "LSB;label=32;scalar=64";
    class       polyBoundaryMesh;
    location    "constant/polyMesh";
    object      boundary;
}
// * * * * * * * * * * * * * * * * * * * * * * * * * * * * * * * * * * * * * //

5
(
    front
    {
        type            wedge;
        inGroups        1(wedge);
        nFaces          18900;
        startFace       37500;
    }
    back
    {
        type            wedge;
        inGroups        1(wedge);
        nFaces          18900;
        startFace       56400;
    }
    wall
    {
        type            wall;
        inGroups        1(wall);
        nFaces          210;
        startFace       75300;
    }
    inlet
    {
        type            patch;
        nFaces          90;
        startFace       75510;
    }
    outlet
    {
        type            patch;
        nFaces          90;
        startFace       75600;
    }
)

// ************************************************************************* //
